#!/usr/bin/python
# -*- coding: utf-8 -*-

from os import system
from prm import rescue_mode

if __name__ == "__main__":
    RESCUE = rescue_mode.RescueMode()
    RESCUE.run()
    system("clear")
